Version 4
SHEET 1 4860 680
WIRE 432 -128 352 -128
WIRE 704 -128 528 -128
WIRE 784 -128 704 -128
WIRE 832 -128 784 -128
WIRE 992 -128 912 -128
WIRE 1136 -128 992 -128
WIRE 1168 -128 1136 -128
WIRE 352 -96 352 -128
WIRE 992 -80 992 -128
WIRE 1168 -80 1168 -128
WIRE 784 -48 784 -128
WIRE 2480 -16 2288 -16
WIRE 2720 -16 2560 -16
WIRE 2800 -16 2720 -16
WIRE 2928 -16 2864 -16
WIRE 3072 -16 2928 -16
WIRE 3104 -16 3072 -16
WIRE 352 0 352 -16
WIRE 2288 16 2288 -16
WIRE 2720 32 2720 -16
WIRE 2928 32 2928 -16
WIRE 3104 32 3104 -16
WIRE 512 48 512 -80
WIRE 576 48 512 48
WIRE 704 48 704 -128
WIRE 704 48 656 48
WIRE 2640 80 2448 80
WIRE 80 96 -240 96
WIRE 448 96 304 96
WIRE 592 96 448 96
WIRE 784 96 784 16
WIRE 992 96 992 -16
WIRE 992 96 784 96
WIRE 1168 96 1168 0
WIRE 1168 96 992 96
WIRE -240 112 -240 96
WIRE 2288 112 2288 96
WIRE 2640 112 2640 80
WIRE 2672 112 2640 112
WIRE 640 144 640 96
WIRE 992 144 992 96
WIRE 2448 160 2448 80
WIRE 2512 160 2448 160
WIRE 2640 160 2592 160
WIRE 80 176 -80 176
WIRE 416 176 304 176
WIRE 2016 208 1696 208
WIRE 2384 208 2240 208
WIRE 2528 208 2384 208
WIRE 2640 208 2640 160
WIRE 2720 208 2720 128
WIRE 2720 208 2640 208
WIRE 2928 208 2928 96
WIRE 2928 208 2720 208
WIRE 3104 208 3104 112
WIRE 3104 208 2928 208
WIRE 1696 224 1696 208
WIRE -240 256 -240 192
WIRE -80 256 -80 176
WIRE -80 256 -240 256
WIRE -32 256 -80 256
WIRE 80 256 48 256
WIRE 336 256 304 256
WIRE 416 256 336 256
WIRE 2576 256 2576 208
WIRE 2928 256 2928 208
WIRE -80 288 -80 256
WIRE 2016 288 1856 288
WIRE 2352 288 2240 288
WIRE 336 304 336 256
WIRE 1696 368 1696 304
WIRE 1856 368 1856 288
WIRE 1856 368 1696 368
WIRE 1904 368 1856 368
WIRE 2016 368 1984 368
WIRE 2272 368 2240 368
WIRE 2352 368 2272 368
WIRE 1856 400 1856 368
WIRE 2272 416 2272 368
FLAG 336 304 0
FLAG -80 288 0
FLAG 448 96 PWM1
FLAG 640 144 0
FLAG 352 0 0
FLAG 992 144 0
FLAG 1136 -128 buck
FLAG 2272 416 0
FLAG 1856 400 0
FLAG 2384 208 PWM2
FLAG 2576 256 0
FLAG 2288 112 0
FLAG 2928 256 0
FLAG 3072 -16 boost
SYMBOL voltage 416 160 R0
WINDOW 123 0 0 Left 2
WINDOW 39 0 0 Left 2
SYMATTR InstName V1
SYMATTR Value 5
SYMBOL res 64 240 R90
WINDOW 0 0 56 VBottom 2
WINDOW 3 32 56 VTop 2
SYMATTR InstName R1
SYMATTR Value 250k
SYMBOL voltage -240 96 R0
WINDOW 123 0 0 Left 2
WINDOW 39 0 0 Left 2
WINDOW 3 -175 109 Left 2
SYMATTR InstName V2
SYMATTR Value PWL(0 0 2.5m 0 4m 0.9 8m 0.9)
SYMBOL nmos 432 -80 R270
WINDOW 0 -16 30 VRight 2
WINDOW 3 86 142 VLeft 2
SYMATTR InstName M1
SYMATTR Value BSC900N20NS3
SYMBOL e 560 48 R270
SYMATTR InstName E1
SYMATTR Value 1
SYMBOL ind 816 -112 R270
WINDOW 0 32 56 VTop 2
WINDOW 3 5 56 VBottom 2
SYMATTR InstName L1
SYMATTR Value 150µ
SYMATTR SpiceLine Rser=363m
SYMBOL schottky 800 16 R180
WINDOW 0 24 64 Left 2
WINDOW 3 -119 -14 Left 2
SYMATTR InstName D1
SYMATTR Value PMEG6010AED
SYMATTR Description Diode
SYMATTR Type diode
SYMBOL cap 976 -80 R0
SYMATTR InstName C1
SYMATTR Value 20µ
SYMBOL res 1152 -96 R0
SYMATTR InstName R2
SYMATTR Value 20
SYMBOL voltage 352 -112 R0
WINDOW 123 0 0 Left 2
WINDOW 39 0 0 Left 2
SYMATTR InstName V3
SYMATTR Value 20
SYMBOL voltage 2352 272 R0
WINDOW 123 0 0 Left 2
WINDOW 39 0 0 Left 2
SYMATTR InstName V4
SYMATTR Value 5
SYMBOL res 2000 352 R90
WINDOW 0 0 56 VBottom 2
WINDOW 3 32 56 VTop 2
SYMATTR InstName R3
SYMATTR Value 250k
SYMBOL voltage 1696 208 R0
WINDOW 123 0 0 Left 2
WINDOW 39 0 0 Left 2
WINDOW 3 -199 117 Left 2
SYMATTR InstName V5
SYMATTR Value PWL(0 0 2.5m 0 4m 0.7 8m 0.7)
SYMBOL nmos 2672 32 R0
SYMATTR InstName M2
SYMATTR Value BSC900N20NS3
SYMBOL e 2496 160 R270
SYMATTR InstName E2
SYMATTR Value 1
SYMBOL ind 2464 0 R270
WINDOW 0 32 56 VTop 2
WINDOW 3 5 56 VBottom 2
SYMATTR InstName L2
SYMATTR Value 150µ
SYMATTR SpiceLine Rser=363m
SYMBOL schottky 2800 0 R270
WINDOW 0 32 32 VTop 2
WINDOW 3 0 32 VBottom 2
SYMATTR InstName D2
SYMATTR Value PMEG6010AED
SYMATTR Description Diode
SYMATTR Type diode
SYMBOL cap 2912 32 R0
SYMATTR InstName C2
SYMATTR Value 20µ
SYMBOL res 3088 16 R0
SYMATTR InstName R4
SYMATTR Value 120
SYMBOL voltage 2288 0 R0
WINDOW 123 0 0 Left 2
WINDOW 39 0 0 Left 2
SYMATTR InstName V6
SYMATTR Value 10
SYMBOL SpecialFunctions\\LTC6992-3 2128 288 R0
SYMATTR InstName U2
SYMBOL SpecialFunctions\\LTC6992-3 192 176 R0
SYMATTR InstName U1
TEXT -232 -256 Left 2 !.tran 0 8m 0 uic
TEXT 736 -208 Left 2 ;Coilcraft MSS1246-154KL
TEXT 2392 -112 Left 2 ;Coilcraft MSS1246-154KL
TEXT 2464 320 Left 2 ;Gate Driver: Diodes Inc. ZXGD3005E6
TEXT 528 216 Left 2 ;Gate Driver: On-Semiconductor FAN7371
TEXT 1584 168 Left 2 ;Vduty = 0-0.7 V (0-70%)
TEXT -352 48 Left 2 ;Vduty = 0-1 V (0-100%)
